259
 i = 1494000 CELL:  11.5400000000288  9.99399999995988  27.7064979609679  90 90 90 
Au    6.390   7.466  15.010
Au    7.950   9.903  14.999
Au    6.440   5.618  10.236
Au    7.847   8.121  10.338
Au    6.514   5.521  17.369
Au    7.927   8.132  17.202
Au    8.070   6.458  12.475
Au    9.418   8.911  12.592
Au    9.394   7.533  14.978
Au   10.905   9.854  15.022
Au    9.262   5.682  10.193
Au   10.831   8.081  10.313
Au    9.318   5.666  17.485
Au   10.744   8.116  17.273
Au   10.967   6.416  12.542
Au    0.798   8.745  12.586
Au    0.683   7.316  14.967
Au    2.251   9.816  15.084
Au    0.827   5.444  10.370
Au    2.057   8.014  10.270
Au    0.686   5.607  17.450
Au    2.050   8.046  17.293
Au    2.207   6.288  12.763
Au    3.545   8.982  12.756
Au    3.458   7.247  15.097
Au    5.039   9.754  15.124
Au    3.547   5.630  10.348
Au    5.113   8.201  10.336
Au    3.569   5.606  17.605
Au    4.970   8.048  17.467
Au    5.057   6.529  12.669
Au    6.454   9.014  12.729
Au    6.573   2.596  14.810
Au    7.984   4.992  14.924
Au    6.435   0.735  10.446
Au    7.918   3.149  10.258
Au    6.481   0.647  17.209
Au    7.834   3.211  17.185
Au    8.013   1.479  12.589
Au    9.268   3.962  12.570
Au    9.542   2.319  14.994
Au   10.785   4.838  15.111
Au    9.450   0.616  10.412
Au   10.844   3.011  10.330
Au    9.318   0.611  17.370
Au   10.748   3.207  17.466
Au   10.844   1.318  12.624
Au    0.746   3.870  12.853
Au    0.884   2.188  15.191
Au    2.127   4.717  15.232
Au    0.809   0.482  10.303
Au    2.187   3.129  10.435
Au    0.581   0.632  17.322
Au    2.289   3.140  17.374
Au    2.249   1.428  12.752
Au    3.607   3.865  12.809
Au    3.697   2.294  15.082
Au    5.009   4.794  15.246
Au    3.585   0.566  10.433
Au    5.075   3.222  10.289
Au    3.557   0.430  17.443
Au    5.064   3.042  17.453
Au    5.058   1.510  12.645
Au    6.429   4.048  12.508
Cu    7.051   1.752  19.272
Cu    5.195  -0.204  19.271
O     5.940   0.920  20.453
O     5.185   8.388   2.092
H     5.240   8.441   1.094
H     6.102   8.258   2.469
O     2.330   5.585  24.456
H     2.414   6.232  23.698
H     2.027   6.070  25.276
O     8.349   7.512   7.262
H     8.594   6.717   6.707
H     7.357   7.537   7.388
O     9.934   2.701  20.211
H    10.904   2.908  20.334
H     9.829   1.744  19.939
O     3.809   6.139   5.352
H     3.501   5.615   6.146
H     4.138   5.512   4.646
O    10.456   7.633  26.228
H     9.940   7.988  27.008
H    11.377   7.381  26.525
O     5.669   7.801   6.659
H     4.800   7.454   6.308
H     5.827   8.723   6.307
O     7.956   3.883   5.675
H     7.672   4.753   5.271
H     8.192   3.239   4.947
O    11.315   7.534   6.578
H    11.947   8.223   6.224
H    10.967   7.826   7.469
O    11.085   5.642   2.693
H    11.254   6.622   2.591
H    11.151   5.391   3.658
O     8.722  10.227   6.650
H     7.753  10.391   6.467
H     8.860   9.262   6.873
O    11.254   5.106   5.294
H    11.365   5.907   5.883
H    11.574   4.291   5.776
O     1.648   2.163  24.863
H     2.458   1.811  25.332
H     1.036   1.404  24.640
O     1.736   0.551  20.716
H     1.403   1.485  20.590
H     2.095   0.447  21.644
O     7.547   4.979  22.876
H     8.053   5.162  22.033
H     8.177   4.988  23.652
O     2.260   9.176  23.400
H     1.555   9.296  24.100
H     1.843   8.815  22.566
O    11.510   9.814  24.829
H    11.036   9.073  25.305
H    10.894  10.226  24.158
O     9.353   1.577   1.576
H     9.556   0.853   2.235
H     9.116   2.416   2.065
O     2.821   1.162   7.179
H     3.798   1.137   6.967
H     2.409   0.279   6.955
O     9.519   3.022   7.409
H     9.214   2.071   7.367
H     9.014   3.564   6.737
O     5.651   8.776  27.093
H     5.293   9.662  26.799
H     5.547   8.112  26.352
O     2.614   3.019   3.027
H     2.926   3.700   3.689
H     2.901   3.290   2.108
O     7.234   6.283   4.513
H     6.669   6.906   5.053
H     7.682   6.792   3.778
O     1.640   8.975   5.701
H     1.573   9.890   5.303
H     2.005   8.341   5.019
O     6.000   0.583   6.003
H     5.418   0.642   5.192
H     5.789   1.341   6.620
O     9.895   1.123  22.838
H    10.162   2.046  22.562
H     9.942   0.512  22.048
O     0.172   0.669   0.413
H     0.292   0.912  -0.549
H    -0.460   1.312   0.843
O     3.928   3.647  25.496
H     4.682   3.366  24.903
H     3.300   4.232  24.983
O     9.273   4.426  24.888
H     8.354   4.350  25.275
H     9.951   4.239  25.599
O     3.551   3.651   0.405
H     3.546   3.851  -0.575
H     4.483   3.437   0.697
O     1.408   7.527  21.047
H     1.632   8.253  20.397
H     0.416   7.405  21.081
O     7.791   8.379   2.749
H     8.429   9.062   3.105
H     8.026   8.166   1.801
O     1.169   3.365  20.702
H     0.591   3.686  21.452
H     1.858   4.058  20.492
O     0.772   2.855   6.787
H     1.352   2.189   7.257
H    -0.115   2.907   7.245
O     3.249   5.217  21.191
H     4.086   5.724  21.398
H     2.500   5.860  21.033
O     8.319   8.728  27.599
H     8.363   9.720  27.717
H     7.441   8.480  27.190
O    11.219   4.062  23.198
H    10.372   4.168  23.719
H    11.968   4.511  23.685
O     1.343   1.336   4.578
H     1.013   1.848   5.371
H     1.850   1.950   3.972
O    -0.088   4.074  26.416
H     0.582   3.525  25.917
H     0.291   4.337  27.304
O     5.087   4.523   3.591
H     5.211   3.697   3.042
H     5.964   4.797   3.985
O     3.856   2.817  22.583
H     3.710   3.558  21.928
H     3.316   2.990  23.407
O     7.393   2.117  27.401
H     7.696   1.940  26.464
H     8.143   1.929  28.035
O    10.189   9.943  20.073
H     9.875   9.028  20.330
H    11.146   9.898  19.786
O     2.772   7.717   3.439
H     3.023   6.995   4.084
H     3.536   7.889   2.818
O     3.204   4.418   7.500
H     3.226   4.806   8.421
H     2.254   4.279   7.219
O     1.672   7.181  26.569
H     2.038   8.088  26.776
H     1.742   6.600  27.380
O     4.932   1.352  26.496
H     4.934   1.681  25.552
H     5.334   2.047  27.093
O     1.418   5.264   0.757
H     2.150   4.585   0.812
H     0.965   5.339   1.645
O     5.607   2.051   1.892
H     6.336   1.620   1.359
H     5.144   1.359   2.444
O     9.748   9.892   3.972
H    10.415   9.176   3.769
H     9.658   9.993   4.963
O     2.635   9.643  26.714
H     3.396  10.271  26.553
H     2.043  10.012  27.431
O     4.643   0.495  23.642
H     3.798  -0.040  23.670
H     4.463   1.380  23.212
O     5.403   2.765   7.236
H     6.173   3.378   7.062
H     4.558   3.297   7.291
O     6.223   3.148  24.276
H     6.775   2.315  24.324
H     6.597   3.755  23.575
O     0.135   8.495   2.556
H     0.100   9.174   1.823
H     1.089   8.313   2.797
O     8.905   5.324  20.294
H     8.291   5.398  19.508
H     9.289   4.401  20.331
O     5.469   6.556  22.025
H     5.789   7.488  22.194
H     6.114   5.904  22.423
O     4.257   0.360   3.939
H     3.353   0.537   3.551
H     4.626  -0.485   3.552
O     5.147   6.681  25.271
H     4.203   6.409  25.457
H     5.707   5.864  25.128
O     9.399   3.583   3.428
H    10.087   2.948   3.779
H     9.853   4.385   3.040
O     6.786   8.857  23.892
H     6.039   9.501  23.730
H     6.427   8.033  24.331
O     7.962   1.205  24.934
H     8.834   1.085  24.459
H     7.372   0.419  24.751
O    10.132   7.386  21.251
H     9.856   7.341  22.211
H     9.985   6.496  20.819
O     9.160   7.313  23.608
H     8.423   7.916  23.914
H     9.715   7.039  24.393
