261
 i = 1494000 CELL:  11.5400000000288  9.99399999995988  27.394560241058  90 90 90 
Au    0.867   2.224  14.844
Au    2.229   4.853  14.899
Au    0.551   0.643  10.134
Au    2.184   3.195  10.234
Au    0.715   0.495  17.140
Au    2.137   3.144  17.168
Au    2.239   1.438  12.548
Au    3.636   3.939  12.402
Au    3.620   2.401  14.944
Au    5.209   4.879  14.880
Au    3.565   0.771  10.073
Au    5.003   3.234  10.145
Au    3.716   0.556  17.352
Au    5.060   3.281  17.086
Au    5.164   1.424  12.411
Au    6.510   3.954  12.607
Au    6.480   2.245  14.866
Au    8.073   4.774  14.809
Au    6.526   0.720  10.171
Au    7.923   3.164  10.217
Au    6.374   0.420  17.348
Au    8.006   3.080  17.149
Au    8.045   1.350  12.492
Au    9.352   4.103  12.476
Au    9.437   2.330  14.887
Au   10.870   4.669  14.883
Au    9.347   0.465  10.146
Au   10.779   3.121   9.994
Au    9.361   0.623  17.128
Au   10.740   2.925  17.257
Au   10.854   1.487  12.520
Au    0.583   3.925  12.514
Au    0.714   7.319  14.978
Au    2.271   9.647  14.932
Au    0.621   5.632  10.272
Au    2.015   8.332  10.152
Au    0.766   5.576  17.180
Au    2.256   8.084  17.374
Au    2.081   6.492  12.589
Au    3.549   8.925  12.529
Au    3.623   7.213  14.795
Au    4.993   9.895  15.007
Au    3.449   5.785  10.204
Au    4.909   8.259  10.217
Au    3.632   5.590  17.214
Au    5.078   7.984  17.233
Au    4.886   6.368  12.314
Au    6.393   8.929  12.486
Au    6.514   7.335  14.855
Au    7.857   9.762  14.793
Au    6.354   5.746  10.248
Au    8.005   8.110  10.254
Au    6.635   5.592  17.179
Au    8.055   8.150  17.152
Au    7.768   6.438  12.535
Au    9.313   8.860  12.562
Au    9.465   7.271  14.974
Au   10.866   9.903  14.846
Au    9.367   5.590  10.126
Au   10.776   8.052  10.169
Au    9.501   5.508  17.332
Au   10.924   7.982  17.569
Au   10.786   6.547  12.503
Au    0.703   9.100  12.331
Cu   10.644   0.613  19.065
O     9.361   1.376  20.065
H     9.561   2.368  19.853
O    11.762  -0.158  20.287
H    11.384   0.391  21.078
O     0.224   3.695  20.153
H     1.208   3.655  20.326
H    -0.030   4.625  19.889
O     8.520   9.434   4.180
H     8.158  10.357   4.048
H     8.143   8.825   3.482
O     3.752   5.757   3.021
H     4.608   6.010   3.472
H     3.479   6.486   2.392
O     2.427   6.559   5.253
H     2.861   6.208   4.424
H     2.406   5.841   5.948
O     5.840   0.103   5.726
H     6.244   0.863   5.217
H     4.998  -0.191   5.273
O     0.993   2.435   7.677
H    -0.003   2.351   7.709
H     1.404   1.524   7.672
O     3.370   8.001   1.228
H     3.668   8.674   1.905
H     2.422   8.187   0.969
O    10.745   3.354   5.671
H    11.498   3.540   6.302
H    10.056   2.793   6.131
O     9.492   1.010   6.896
H     8.823   1.402   7.527
H     9.468   0.012   6.961
O     1.372   7.858  24.391
H     2.163   7.780  24.997
H     0.719   8.509  24.777
O     6.725   7.734   6.964
H     6.299   8.577   6.635
H     7.711   7.871   7.053
O     3.989   1.115  22.315
H     3.684   1.040  21.365
H     4.091   0.200  22.705
O    10.423   6.746   2.347
H     9.523   7.176   2.268
H    10.353   5.781   2.094
O     6.335   6.332   4.425
H     6.302   5.345   4.585
H     6.376   6.811   5.301
O     6.722   1.668  20.463
H     7.651   1.424  20.186
H     6.549   1.325  21.387
O    10.005   7.384  20.591
H     9.402   6.657  20.264
H    10.957   7.130  20.421
O    10.939   3.083  26.243
H    10.801   2.535  25.418
H    11.063   4.042  25.989
O     8.517   5.287  20.280
H     7.701   4.770  20.021
H     8.651   5.224  21.269
O     3.896   0.721   1.757
H     4.260   1.615   2.020
H     2.977   0.833   1.381
O     1.376   2.585   0.946
H     0.868   2.640   1.806
H     0.735   2.590   0.179
O     9.353   8.331   6.420
H    10.076   7.698   6.145
H     8.978   8.781   5.609
O     0.801   5.248  25.169
H     0.836   6.230  24.983
H     0.697   4.749  24.308
O     0.953   6.827  19.997
H     1.077   7.677  19.485
H     1.758   6.660  20.566
O     9.283   8.530  25.416
H    10.007   8.799  26.052
H     9.451   8.949  24.524
O     7.000   2.020  25.009
H     6.216   2.637  25.079
H     7.192   1.621  25.906
O     9.696   4.239   1.214
H    10.031   4.032   0.294
H     8.696   4.237   1.212
O    10.520   0.865   1.060
H    10.665   1.474   1.841
H    10.863  -0.048   1.281
O     5.871   4.286  20.490
H     5.042   4.532  19.987
H     5.997   3.295  20.461
O     6.093   9.216   0.631
H     5.203   9.662   0.725
H     6.167   8.810  -0.280
O     3.891   8.366  20.333
H     4.889   8.293  20.356
H     3.506   7.932  21.147
O     5.745   4.511  25.980
H     4.786   4.278  26.140
H     5.894   4.657  25.002
O     2.219   9.962   7.631
H     2.603   9.625   6.771
H     1.773   9.209   8.115
O     7.415   3.763   6.116
H     8.120   4.326   6.548
H     7.219   2.972   6.696
O     2.866   6.895  22.305
H     2.106   7.180  22.889
H     3.060   5.926  22.460
O    10.914   6.553   5.190
H    10.731   6.715   4.220
H    11.888   6.362   5.318
O     0.292  -0.050  25.798
H     0.057   0.423  26.648
H    -0.139   0.419  25.027
O     3.204   9.191   5.067
H     2.434   9.495   4.506
H     3.038   8.258   5.385
O     9.165   5.459   7.108
H     8.985   6.305   7.610
H     9.831   5.636   6.384
O     5.169   5.106   7.450
H     5.411   5.997   7.834
H     5.846   4.844   6.762
O     4.978   3.177   2.536
H     5.325   3.513   1.661
H     4.272   3.799   2.876
O     0.709   8.525   1.406
H     0.026   7.871   1.733
H     1.067   9.047   2.180
O     3.661   7.166  25.996
H     4.087   7.421  26.864
H     3.344   6.219  26.046
O     6.669   7.946  25.773
H     7.629   8.153  25.581
H     6.191   7.758  24.916
O     9.578   9.131  22.536
H     9.936   8.651  21.735
H     8.586   9.226  22.452
O     7.072   3.766   0.746
H     6.763   4.151  -0.124
H     7.376   2.824   0.605
O     4.808   8.328  23.751
H     4.215   7.931  23.051
H     4.467   8.078  24.657
O     8.593   6.391  23.187
H     9.405   6.970  23.118
H     8.518   6.031  24.117
O     3.771   2.176  25.014
H     3.795   1.643  24.168
H     2.994   1.883  25.570
O     6.727   2.020   4.202
H     6.004   2.377   3.610
H     7.113   2.767   4.744
O     2.681   0.756  20.085
H     3.280  -0.034  19.956
H     1.750   0.443  20.273
O     9.225   5.581  25.817
H     8.324   5.553  26.248
H     9.629   6.487  25.947
O     6.172   5.188  22.972
H     6.137   4.808  22.048
H     6.936   5.830  23.040
O     2.893   4.418  26.713
H     2.573   4.094  27.603
H     2.119   4.479  26.083
O     0.909  -0.059   3.694
H     0.212   0.066   4.400
H     1.056   0.807   3.214
O     8.039   1.211  -0.002
H     7.674   0.310   0.234
H     8.954   1.312   0.389
O     2.813   3.569  20.675
H     3.296   3.738  21.534
H     2.636   2.590  20.579
O    11.141   2.514   3.125
H    10.584   3.176   2.623
H    11.005   2.641   4.107
O     3.634   4.306  23.288
H     4.610   4.459  23.130
H     3.516   3.683  24.061
O     9.860   1.397  24.057
H     9.756   0.652  23.398
H     8.957   1.723  24.336
O     7.741   7.903   2.150
H     7.186   8.453   1.525
H     7.141   7.387   2.762
O     6.517   1.934   7.725
H     5.752   2.295   8.257
H     6.205   1.159   7.175
O    11.249   3.654  22.792
H    11.183   3.818  21.808
H    10.519   3.034  23.076
O     2.655   4.569   6.977
H     3.520   4.775   7.433
H     2.259   3.740   7.372
O     6.801   0.128  23.187
H     6.740   0.962  23.735
H     6.214  -0.577  23.586
