256
 i = 1404000 CELL:  11.5400000000288  9.99399999995988  26.7035670803791  90 90 90 
Au    0.261   2.299  14.558
Au    1.886   4.721  14.522
Au    0.420   0.654   9.697
Au    1.650   3.175   9.756
Au    0.413   0.632  17.026
Au    1.797   3.131  16.860
Au    1.747   1.494  12.080
Au    3.287   4.012  12.067
Au    3.252   2.212  14.472
Au    4.609   4.676  14.510
Au    3.195   0.630   9.805
Au    4.576   3.283   9.896
Au    3.261   0.567  16.854
Au    4.792   3.006  16.760
Au    4.668   1.438  12.085
Au    6.108   4.069  12.058
Au    6.137   2.279  14.413
Au    7.539   4.821  14.476
Au    5.987   0.627   9.736
Au    7.655   3.042   9.782
Au    6.144   0.591  16.879
Au    7.607   3.073  16.812
Au    7.459   1.469  12.134
Au    9.047   3.977  12.038
Au    8.964   2.387  14.474
Au   10.528   4.743  14.605
Au    9.098   0.726   9.791
Au   10.429   3.126   9.800
Au    8.999   0.651  16.957
Au   10.510   3.072  16.745
Au   10.509   1.571  12.155
Au    0.439   4.081  12.026
Au    0.408   7.167  14.669
Au    1.751   9.771  14.559
Au    0.152   5.775   9.716
Au    1.845   8.181   9.949
Au    0.453   5.445  17.073
Au    1.792   7.921  16.922
Au    1.918   6.564  12.176
Au    3.427   9.021  12.333
Au    3.210   7.207  14.713
Au    4.678   9.673  14.671
Au    2.955   5.841   9.659
Au    4.707   8.220   9.809
Au    3.328   5.499  16.834
Au    4.701   8.011  17.091
Au    4.650   6.498  12.027
Au    6.303   8.974  12.011
Au    6.022   7.155  14.704
Au    7.667   9.758  14.678
Au    6.248   5.734   9.856
Au    7.662   8.253   9.786
Au    6.064   5.617  16.866
Au    7.556   8.071  16.912
Au    7.608   6.516  12.189
Au    9.089   9.005  12.184
Au    8.984   7.267  14.549
Au   10.557   9.698  14.693
Au    8.883   5.609   9.834
Au   10.403   8.188   9.980
Au    9.005   5.495  16.937
Au   10.425   7.922  16.890
Au   10.409   6.495  12.222
Au    0.369   9.023  12.191
O     1.835   3.327  22.950
O     1.191   4.164  20.160
O     1.181   5.714   2.159
H     1.216   4.721   2.277
H     1.564   5.957   1.268
O     5.919   6.986   7.119
H     6.899   7.155   7.224
H     5.717   6.037   7.360
O     2.582   1.656  20.134
H     3.353   2.093  20.598
H     1.984   2.359  19.749
O    10.219   7.135  -0.285
H     1.471   5.111  20.319
H     9.951   6.394   0.330
H    10.002   8.015   0.138
O     5.470   8.777  20.501
H     5.487   9.776  20.539
H     4.737   8.478  19.890
O     2.312   9.334   3.438
H     2.531   9.406   2.465
H     0.194   4.117  20.100
H     3.159   9.269   3.966
O     6.807   9.513   2.911
H     7.800   9.404   2.856
H     6.527  10.298   2.359
O     7.899   5.736   3.086
H     6.992   5.508   3.442
H     8.407   6.253   3.774
O     0.810   1.420  26.435
H     1.056   1.166  25.499
H    -0.006   0.913  26.714
O     6.761   2.445  25.162
O     0.645   1.021  23.598
H    -0.353   1.083  23.628
H     1.024   1.894  23.290
O     2.337   0.526   6.838
H     2.840  -0.336   6.900
H     1.453   0.365   6.399
O    10.413   6.637  21.706
H    10.226   5.965  20.989
H     9.994   7.511  21.461
O     7.129   4.548  19.919
H     6.281   2.686  24.319
H     6.578   3.784  19.584
H     7.087   4.577  20.917
O     0.932   1.772   4.371
H     1.808   2.145   4.677
H     1.084   0.891   3.924
O     9.906   4.116  20.325
H     9.725   3.209  20.705
H     9.086   4.455  19.865
O     6.468   9.497   5.532
H     6.205   8.620   5.932
H     6.769   3.234  25.778
H     6.513   9.409   4.536
O     3.308   6.650   3.952
H     3.965   6.924   3.250
H     2.521   6.209   3.519
O     2.478   5.714  26.373
H     2.946   6.481  25.934
H     3.071   5.317  27.073
O     3.615   6.123  22.021
H     4.013   5.289  21.638
H     2.886   6.451  21.421
O     3.112   9.288   0.916
O     9.944   6.038   5.169
H    10.224   5.094   4.996
H    10.682   6.659   4.905
O     3.036   7.932   6.896
H     3.114   7.464   6.016
H     3.936   7.977   7.330
O     0.356   3.069   1.847
H     0.617   2.538   2.653
H     0.409   2.488   1.034
O     9.482   1.143  23.725
H     3.457   9.870   0.180
H     9.387   1.553  22.818
H     8.594   1.139  24.184
O    10.319   9.358  20.184
H    10.143   8.815  19.362
H    11.203   9.097  20.573
O     4.458   1.025   4.682
H     3.831   1.526   5.279
H     5.285   0.789   5.192
O     9.364   8.544  23.353
H     8.440   8.506  22.974
H     3.829   8.651   1.200
H     9.633   9.498  23.482
O     6.172   1.395  19.711
H     5.588   1.580  18.921
H     5.837   1.908  20.501
O     7.818   2.014   6.300
H     7.537   1.109   5.983
H     7.090   2.414   6.856
O     6.729   9.278  22.904
H     6.650  10.274  22.956
H     6.087   8.928  22.222
O     8.846   1.387  20.893
O     7.812   7.211  19.987
H     7.094   7.906  19.944
H     7.408   6.306  19.852
H     2.781   3.253  23.265
H     7.895   1.230  20.630
H     9.414   0.637  20.553
O     9.037   5.355  23.917
H     8.147   5.511  23.487
H     9.192   4.372  24.014
O    10.407   0.148   6.440
H    10.031   0.925   6.945
H    10.706  -0.555   7.086
O     1.353   6.766  20.887
H     1.437   7.749  20.726
H     1.825   3.599  21.987
H     0.449   6.567  21.266
O     0.257   7.628   7.184
H     1.105   7.398   6.706
H     0.372   7.465   8.164
O     6.555   7.940  25.338
H     5.597   7.779  25.102
H     7.023   8.361  24.560
O     9.435   8.901   3.283
H     9.578   9.430   4.119
H    10.114   8.168   3.233
O     6.415   5.356  23.084
O     7.796   0.287  26.427
H     7.153  -0.479  26.431
H     7.314   1.127  26.178
O    10.194   3.173   5.490
H    10.798   2.403   5.282
H     9.301   2.827   5.779
O     3.388   2.817   6.419
H     2.601   3.432   6.455
H     3.182   1.982   6.931
O     4.479   2.557   2.264
H     5.666   6.018  23.039
H     4.361   2.033   3.108
H     4.198   1.999   1.483
O    10.257  -0.001   0.733
H     9.446   0.276   0.218
H    10.012  -0.140   1.692
O     1.199   4.515   6.699
H     0.380   4.219   6.207
H     1.034   5.410   7.113
O     5.710   3.981   6.936
H     6.231   4.110   6.092
H     6.044   4.429  23.018
H     4.896   3.432   6.745
O     9.663   4.659   1.299
H    10.433   4.194   1.736
H     8.990   4.915   1.994
O     8.668   7.635   7.113
H     8.815   8.621   7.042
H     9.360   7.155   6.573
O     5.133   7.435   1.854
H     5.967   7.734   2.317
H     5.338   6.648   1.272
O     0.467   5.119  24.615
O     3.735   1.829  26.372
H     2.737   1.764  26.373
H     4.011   2.727  26.030
O     4.254  -0.008  24.664
H     4.421   0.620  25.424
H     4.389   0.475  23.798
O     3.763   7.308  24.495
H     3.846   8.302  24.429
H     3.571   6.928  23.591
O     4.818   4.816   0.728
H     1.076   5.162  25.407
H     4.897   4.002   1.304
H     5.503   4.778   0.002
O     1.399   9.469  21.153
H     2.010  10.066  20.633
H     1.185   9.895  22.032
O     5.379   4.799   3.966
H     4.919   3.968   3.654
H     0.942   4.682  23.851
H     4.696   5.487   4.210
O     7.165   4.919  26.100
H     7.052   5.859  25.777
H     8.117   4.770  26.365
O     0.172   7.406   3.899
H     0.646   8.281   3.798
H     0.562   6.741   3.263
O     0.934   8.204  24.306
H     0.916   9.029  23.742
H     1.746   8.216  24.889
Cu   10.645   6.865  24.141
S     4.769   2.630  22.223
O     4.037   1.065  22.145
O     6.541   2.559  22.096
O     4.145   3.719  20.976
O     4.404   3.350  23.803
