274
 i = 1494000 CELL:  11.5400000000288  9.99399999995988  29.8196331979952  90 90 90 
Au    0.712   1.424  16.017
Au    2.264   3.946  15.971
Au    0.761   9.754  11.469
Au    2.130   2.249  11.338
Au    0.753   9.450  18.707
Au    2.277   2.063  18.198
Au    2.220   0.549  13.731
Au    3.591   3.079  13.691
Au    3.567   1.363  16.017
Au    5.038   3.839  15.984
Au    3.577   9.604  11.378
Au    5.021   2.224  11.410
Au    3.812   9.537  18.935
Au    5.142   2.089  18.363
Au    4.947   0.530  13.633
Au    6.535   3.112  13.644
Au    6.465   1.403  15.914
Au    7.964   3.826  16.136
Au    6.369   9.601  11.398
Au    7.953   2.424  11.286
Au    6.647   9.729  18.621
Au    8.020   2.207  18.377
Au    7.807   0.612  13.700
Au    9.199   2.882  13.747
Au    9.423   1.378  16.119
Au   10.971   3.810  16.051
Au    9.246   9.836  11.519
Au   10.820   2.170  11.270
Au    9.538   9.600  18.606
Au   10.826   1.981  18.357
Au   10.871   0.443  13.816
Au    0.622   2.888  13.681
Au    0.697   6.358  16.259
Au    2.244   8.825  16.297
Au    0.505   4.667  11.430
Au    1.946   7.155  11.458
Au    0.862   4.483  18.528
Au    2.357   7.134  18.502
Au    2.197   5.503  13.706
Au    3.446   8.001  13.677
Au    3.593   6.412  16.216
Au    4.979   8.909  16.063
Au    3.504   4.767  11.461
Au    4.891   7.158  11.244
Au    3.740   4.566  18.410
Au    5.267   7.397  18.496
Au    4.966   5.602  13.616
Au    6.447   8.156  13.716
Au    6.601   6.472  16.029
Au    7.843   8.877  16.004
Au    6.493   4.770  11.363
Au    7.791   7.347  11.405
Au    6.625   4.660  18.421
Au    7.948   7.162  18.270
Au    7.915   5.621  13.617
Au    9.195   8.052  13.705
Au    9.409   6.325  15.973
Au   10.867   8.820  16.124
Au    9.307   4.771  11.376
Au   10.665   7.252  11.403
Au    9.541   4.540  18.428
Au   10.843   6.966  18.486
Au   10.783   5.466  13.744
Au    0.724   8.002  13.714
Cu    6.477   6.558  20.583
Cu    5.621   8.780  20.816
Cu   10.419   8.357  20.640
Cu    7.992   8.535  20.470
Cu    3.715   7.215  20.733
Cu    1.184   7.580  20.669
Cu    8.350   0.958  20.560
Cu    3.394   2.869  20.237
Cu   10.900   0.754  20.582
Cu    7.345   3.661  20.580
Cu    5.814   1.509  20.569
Cu    2.034   0.641  20.528
Cu    4.967   4.485  20.416
Cu    2.297   5.152  20.570
Cu    9.953   3.158  20.658
Cu    8.918   6.019  20.260
Cu    0.879   3.036  20.508
Cu   11.267   5.401  20.655
O     2.612   2.077   7.397
H     3.353   1.675   7.934
H     2.530   1.591   6.527
O    11.906   5.622   4.590
H    11.525   5.400   5.487
H    11.177   5.958   3.992
O    11.378   6.195   0.971
H    10.575   6.211   1.566
H    11.176   6.687   0.125
O     7.830   9.709   5.063
H     8.672   9.317   5.434
H     7.817   9.593   4.070
O    10.793   3.489  23.496
H    10.677   4.129  22.737
H    11.740   3.520  23.816
O     0.443   6.517  23.619
H     0.993   7.331  23.805
H     0.170   6.511  22.657
O     9.882   7.068   3.506
H    10.035   8.008   3.199
H     9.350   7.077   4.353
O     8.316   0.292  24.173
H     9.293   0.502  24.216
H     7.967   0.141  25.097
O     8.290   5.102   2.197
H     7.595   4.590   2.702
H     9.052   5.321   2.807
O    10.932   1.140   2.437
H    10.123   0.558   2.518
H    11.750   0.567   2.389
O     1.683   9.191  29.032
H     0.747   8.838  29.067
H     2.217   8.654  28.379
O     6.881   4.579  24.009
H     7.643   4.230  24.555
H     6.987   5.565  23.881
O    11.053   4.632   6.928
H    11.132   3.664   7.167
H    10.232   5.014   7.353
O     4.692   4.511  26.246
H     4.868   5.115  25.469
H     5.560   4.176  26.611
O     3.694   0.831   0.340
H     2.845   0.355   0.567
H     3.531   1.817   0.330
O     7.655   7.610  24.571
H     7.670   8.435  24.007
H     8.587   7.384  24.857
O     6.892   3.193  27.461
H     7.533   2.927  26.741
H     7.401   3.516  28.259
O     7.223   3.420   5.769
H     7.814   2.725   6.179
H     6.269   3.213   5.982
O     5.542   1.952   8.362
H     5.991   1.066   8.249
H     6.117   2.548   8.922
O     2.094   4.842   7.593
H     1.150   4.774   7.269
H     2.337   4.008   8.088
O     8.778   9.532   2.349
H     8.120   8.779   2.372
H     8.560  10.141   1.587
O     5.138   7.321  25.703
H     4.768   8.246  25.615
H     6.054   7.290  25.303
O     1.731   1.684  27.916
H     2.631   1.763  27.488
H     1.625   0.768  28.303
O     5.379   8.653   6.960
H     5.635   8.120   6.154
H     4.387   8.618   7.082
O     8.634   5.339   8.351
H     7.709   5.643   8.580
H     8.679   4.341   8.404
O     6.244   8.166  28.095
H     5.658   8.110  28.903
H     5.874   7.582  27.373
O     0.004   1.907   7.329
H     0.957   2.011   7.614
H    -0.049   1.247   6.580
O     8.646   3.821  -0.086
H     9.644   3.811  -0.150
H     8.363   4.480   0.611
O    10.971   0.392   5.240
H    10.642   0.783   4.380
H    11.575  -0.381   5.045
O     2.534   7.536   7.206
H     2.289   6.586   7.400
H     2.051   8.141   7.839
O     1.645   9.035   2.421
H     1.631   8.633   3.337
H     2.189   8.458   1.812
O     0.932   8.215   4.809
H     1.684   8.307   5.463
H     0.766   7.246   4.626
O     0.708   8.970   8.467
H    -0.232   8.681   8.286
H     0.701   9.857   8.929
O     7.194   0.429  27.133
H     6.896  -0.373  27.650
H     6.394   0.926  26.798
O     5.938   1.874  23.890
H     6.130   2.839  23.712
H     6.798   1.365  23.929
O     4.244   4.931   5.527
H     3.780   5.083   6.399
H     3.644   4.415   4.916
O    10.915   0.266  24.428
H    10.620   0.658  25.300
H    11.691  -0.346  24.584
O     3.568   3.817   1.687
H     4.476   3.552   2.014
H     2.900   3.693   2.421
O     2.499   0.979   4.665
H     2.042   0.261   4.139
H     3.488   0.832   4.640
O     2.643   6.343   0.923
H     3.115   5.492   1.153
H     1.656   6.211   1.011
O     1.631   8.673  24.918
H     2.353   9.161  24.427
H     2.013   8.252  25.741
O     6.708   7.317   2.030
H     7.250   6.493   1.866
H     6.102   7.478   1.251
O     5.817   6.985   4.782
H     5.350   6.113   4.636
H     5.914   7.461   3.908
O     7.687   1.118  29.993
H     7.365   0.857  29.082
H     8.265   1.931  29.921
O     4.270  -0.123  24.743
H     4.293   0.302  25.648
H     4.709   0.483  24.080
O     4.318   1.819  26.733
H     5.047   2.394  27.105
H     4.005   2.200  25.863
O     5.879   6.023   7.728
H     5.558   6.968   7.661
H     5.463   5.477   7.001
O     5.962   0.478   2.129
H     5.344  -0.084   1.579
H     6.716   0.801   1.557
O    10.746   7.406  28.124
H    10.800   6.919  27.253
H     9.976   8.043  28.103
O     8.917   2.495   7.799
H     9.831   2.116   7.653
H     8.290   1.762   8.061
O     9.885   0.811  26.877
H     8.896   0.827  27.021
H    10.348   1.117  27.710
O     9.586   7.965   8.367
H     9.585   7.315   7.607
H     9.409   7.479   9.222
O     6.266   3.506   3.214
H     5.779   2.633   3.227
H     6.675   3.673   4.111
O    10.065   6.293  25.486
H     9.791   5.334  25.402
H    10.809   6.484  24.847
O     9.206   3.674  25.375
H     9.608   3.475  26.269
H     9.871   3.469  24.658
O     2.935   7.216  27.198
H     3.783   7.172  26.668
H     2.657   6.292  27.459
O     4.499   8.259   0.376
H     3.852   7.497   0.409
H     4.000   9.115   0.239
O     8.420   6.656   5.750
H     7.537   7.124   5.705
H     8.353   5.879   6.376
O     5.175   0.859   4.552
H     5.964   0.495   5.047
H     5.344   0.801   3.568
O     0.828   3.590  25.994
H     0.918   2.800  26.601
H     1.472   4.301  26.275
O     2.563   4.637  27.783
H     2.648   4.959  28.725
H     3.411   4.186  27.507
O     2.241   3.440   4.186
H     1.350   3.865   4.348
H     2.194   2.468   4.416
O     7.577   9.901   7.949
H     8.326   9.269   8.146
H     6.882   9.435   7.403
O    10.973   1.914  29.485
H    11.089   1.938  30.478
H    11.840   2.144  29.042
