85
CELL: 5.75016316 5.75016375 32.67493481 88.67671394 88.67671399 58.89502402
Cu         6.11289        1.69598       20.62213
Cu         7.72789        4.36289       20.62716
Cu         4.61010        4.35783       20.62213
Cu         3.25769        1.83918       20.52769
Au         6.06734        3.42540       10.77200
Au         3.19272        3.42804       10.77328
Au         4.58454        0.96273       10.77328
Au         1.70417        0.96212       10.77305
Au         1.79789        2.63615       13.35121
Au         4.66922        2.63607       13.35430
Au         0.31041        0.17525       13.35892
Au         3.18593        0.17754       13.35121
Au         3.26803        1.84502       15.87267
Au         6.14295        1.84424       15.83705
Au         4.75257        4.30698       15.83705
Au         7.63070        4.30802       15.83187
Au         4.71475        1.03732       18.41973
Au         1.84260        1.04027       18.41909
Au         6.20119        3.50097       18.26450
Au         3.32385        3.50100       18.41973
O          3.27636        1.84971       22.28393
O          6.15893        3.47711       21.20588
H         1.479596        1.084115       30.993361
H         2.152504        1.438678       32.438461
O         2.322879        1.357227       31.456394
H         2.634777        3.384069        1.337499
H         4.260455        3.538984        1.334547
O         3.392851        4.035724        1.309449
H         1.853837        0.314627       25.051086
H         1.054660        1.476328       25.874863
O         1.307910        1.148075       24.964790
H         7.153423        2.658750       27.763504
H         5.608254        3.184538       27.710228
O         6.195746        2.375237       27.712589
H         4.753947        0.908415       29.191111
H         4.748139        0.904723       27.558081
O         4.262793        0.598326       28.377029
H         5.774041        1.229306       32.532738
H         5.491175        2.547785       31.611633
O         5.166828        2.011115       32.390671
H         7.286469        3.346936       26.370634
H         7.414288        2.442105       25.017202
O         6.898641        2.577286       25.863342
H         3.218877        1.295082        7.007622
H         2.023898        0.672523        7.930268
O         2.236501        1.115045        7.059011
H         4.400922        3.099492       24.537683
H         2.794714        3.121201       24.831724
O         3.598205        2.534657       24.729319
H         2.841620        1.875354        4.980879
H         1.624208        1.145569        4.173316
O         2.466582        1.675636        4.075575
H         3.719978        3.908237        7.558190
H         3.584177        2.631676        6.548840
O         3.634193        3.629082        6.601722
H         3.362378        2.338262       27.450844
H         1.746940        2.440721       27.666937
O         2.470923        2.219830       27.013353
H         6.543417        2.603172        5.450552
H         6.410861        2.289266        7.047650
O         6.074750        2.047473        6.137331
H         5.566395        0.403414       24.158932
H         3.983363        0.398800       23.757902
O         4.915363        0.473410       23.403038
H         5.769077        0.915206        8.896139
H         5.769269        0.748975        7.271577
O         5.543026        1.360615        8.029752
H         4.700812        0.581460        1.817368
H         3.482945        1.274153        0.978433
O         4.415966        1.398657        1.316202
H         6.211363        4.527126       30.531433
H         5.949461        2.946066       30.845270
O         6.605784        3.696449       30.924530
H         3.433540        4.049843        4.356009
H         5.007168        3.679591        4.124843
O         4.336741        4.019806        4.784310
H         4.911083        3.730169       29.721336
H         3.327567        4.128930       29.703897
O         3.978690        3.370028       29.688820
H         5.837341        3.606374        8.135285
H         5.850114        3.523222        6.504409
O         6.191585        4.025204        7.299097
H         5.839017        2.512976        3.310925
H         5.786358        3.701648        2.192387
O         6.120959        2.780039        2.389344
