         306
  CELL: 7.62970712 14.41879115 29.84306329 90.00000000 90.00000000 79.10660535
  Cu           4.022700        5.524650       19.151200
  Cu           2.296930        3.164820       19.151200
  Cu           0.571170        0.804990       19.151200
  Cu           9.200000       12.604130       19.151200
  Cu           7.474230       10.244310       19.151200
  Cu           5.748470        7.884480       19.151200
  Cu           1.933610        7.884480       19.151200
  Cu           7.837550        5.524650       19.151200
  Cu           6.111790        3.164820       19.151200
  Cu           4.386020        0.804990       19.151200
  Cu           5.385150       12.604130       19.151200
  Cu           3.659380       10.244310       19.151200
  Au           5.449790       10.697890        9.697800
  Au           8.174690       11.641820        9.697800
  Au           3.269870       12.585750        9.697800
  Au           4.904810        7.866100        9.697800
  Au           7.629710        8.810030        9.697800
  Au           2.724900        9.753960        9.697800
  Au           4.359830        5.034300        9.697800
  Au           7.084730        5.978230        9.697800
  Au           2.179920        6.922160        9.697800
  Au           3.814850        2.202510        9.697800
  Au           6.539750        3.146440        9.697800
  Au           1.634940        4.090370        9.697800
  Au           5.994770       13.529680        9.697800
  Au           5.994770        0.314640        9.697800
  Au           1.089960        1.258580        9.697800
  Au           7.084730       10.383250       12.052380
  Au           9.809620       11.327180       12.052380
  Au           4.904810       12.271110       12.052380
  Au           6.539750        7.551450       12.052380
  Au           9.264640        8.495380       12.052380
  Au           4.359830        9.439310       12.052380
  Au           5.994770        4.719660       12.052380
  Au           8.719670        5.663590       12.052380
  Au           3.814850        6.607520       12.052380
  Au           5.449790        1.887860       12.052380
  Au           8.174690        2.831790       12.052380
  Au           3.269870        3.775730       12.052380
  Au           7.629710       13.215040       12.052380
  Au           7.629710        0.000000       12.052380
  Au           2.724900        0.943930       12.052380
  Au           3.814850       11.012530       14.406950
  Au           6.539750       11.956470       14.406950
  Au           9.264640       12.900400       14.406950
  Au           3.269870        8.180740       14.406950
  Au           5.994770        9.124670       14.406950
  Au           8.719670       10.068600       14.406950
  Au           2.724900        5.348940       14.406950
  Au           5.449790        6.292880       14.406950
  Au           8.174690        7.236810       14.406950
  Au           2.179920        2.517150       14.406950
  Au           4.904810        3.461080       14.406950
  Au           7.629710        4.405010       14.406950
  Au           4.359830       13.844330       14.406950
  Au           4.359830        0.629290       14.406950
  Au           7.084730        1.573220       14.406950
  Au           5.449790       10.697890       16.761530
  Au           8.174690       11.641820       16.761530
  Au          10.899580       12.585750       16.761530
  Au           4.904810        7.866100       16.761530
  Au           7.629710        8.810030       16.761530
  Au          10.354600        9.753960       16.761530
  Au           4.359830        5.034300       16.761530
  Au           7.084730        5.978230       16.761530
  Au           9.809620        6.922160       16.761530
  Au           3.814850        2.202510       16.761530
  Au           6.539750        3.146440       16.761530
  Au           9.264640        4.090370       16.761530
  Au           5.994770       13.529680       16.761530
  Au           5.994770        0.314640       16.761530
  Au           8.719670        1.258580       16.761530
  O            1.757970        9.816620       18.761530
  O            7.661910        7.456790       18.761530
  O            5.936140        5.096960       18.761530
  O            4.210370        2.737130       18.761530
  O            2.484600        0.377300       18.761530
  O            3.483730       12.176440       18.761530
  O            2.109260        5.952340       19.540860
  O            8.013200        3.592510       19.540860
  O            6.287440        1.232680       19.540860
  O            7.286560       13.031820       19.540860
  O            5.560800       10.672000       19.540860
  O            3.835030        8.312170       19.540860
  H            2.951027        6.579091       22.562626
  H            2.723381        4.983251       22.823982
  O            3.177506        5.808890       23.158959
  H            3.290391        1.924090       25.714381
  H            2.690702        3.053704       26.729852
  O            2.728344        2.075020       26.527670
  H            4.650398        9.773372       22.253829
  H            5.555730       10.628985       23.309829
  O            5.515171       10.259139       22.381558
  H            7.682097       11.017088       26.802371
  H            7.675865       12.611040       27.157496
  O            7.102094       11.817261       26.955459
  H            7.284264        8.939846       26.206790
  H            6.619425        9.404670       24.789482
  O            7.458508        9.394960       25.333506
  H            2.901375       12.679113       26.800820
  H            3.432345       12.663204       25.256587
  O            2.649763       12.483838       25.852835
  H            6.051721       12.716209       28.662586
  H            4.422602       12.720265       28.775684
  O            5.242357       12.148757       28.814396
  H            3.747959        3.172764       23.520526
  H            2.979301        3.940465       24.739803
  O            3.863262        3.603154       24.415839
  H            3.188833        8.221851       27.164133
  H            3.250387        9.709029       26.492306
  O            2.693062        8.886324       26.604844
  H            7.042946       11.768897       21.975763
  H            5.689686       12.600241       22.355753
  O            6.678256       12.667397       22.220338
  H            7.597360        2.266361       28.846736
  H            7.294875        0.919867       27.973643
  O            7.641882        1.857012       27.935382
  H            5.375679       11.451303       25.642868
  H            5.095611       12.677641       26.684258
  O            4.954919       11.702148       26.514736
  H            3.910806        9.581721       24.315589
  H            2.736980       10.680055       24.603041
  O            3.724158       10.542376       24.521552
  H            6.330381        4.454133       21.284096
  H            5.738486        3.049777       21.870851
  O            6.572272        3.566572       21.676320
  H            7.116302        6.077233       26.615650
  H            7.266635        7.219635       27.772867
  O            7.629741        6.885941       26.902856
  H            7.506877        3.118202       24.384063
  H            7.554513        2.212723       25.742251
  O            7.589740        3.144333       25.380340
  H            2.676688        9.802728       28.604639
  H            2.659071       11.418190       28.842986
  O            3.193340       10.650996       28.487896
  H            7.620971        8.047954       23.381739
  H            7.255438        7.276164       24.773702
  O            6.996683        7.398111       23.815427
  H            7.629020        5.333106       28.843213
  H            6.269562        4.751256       28.150277
  O            7.190147        4.518421       28.464011
  H            4.932333        7.130735       24.532743
  H            3.478759        7.136776       25.277002
  O            3.972000        7.396176       24.446615
  H            3.697925        2.717426       20.896662
  H            4.168459        4.279992       20.958496
  O            3.575185        3.588947       21.371534
  H            4.683529        0.089527       27.903157
  H            3.576943        0.963707       28.726634
  O            4.342509        0.326084       28.813027
  H            6.969670       10.730748       28.863298
  H            7.331974        9.138504       28.845051
  O            7.713846       10.062735       28.854488
  H            7.174773        9.107474       21.508730
  H            5.986271        8.062791       21.912384
  O            6.800673        8.194223       21.347058
  H            4.330661       -0.009903       25.596900
  H            2.951700       -0.010787       24.722084
  O            3.949287        0.040234       24.673776
  H            5.101072        1.442583       23.433320
  H            5.356988        1.943548       24.966414
  O            5.598461        2.092980       24.007519
  H            5.187512        4.777027       23.106159
  H            5.094264        6.072315       22.116023
  O            5.504571        5.713272       22.954387
  H            4.876890        2.886877       26.893432
  H            5.458830        2.124227       28.215001
  O            5.685316        2.745719       27.464955
  H            7.513945        0.017080       25.860029
  H            6.346470       -0.004620       24.718378
  O            6.526468        0.014180       25.701925
  H            5.114058        8.589405       26.165291
  H            5.143063        7.048949       26.706575
  O            5.398344        7.992932       26.915969
  H            7.517614        5.265321       23.918850
  H            7.625010        5.841050       22.394436
  O            7.629396        5.014410       22.957255
  H            5.175465        9.902885       27.922182
  H            4.556751        8.687369       28.820263
  O            5.161162        9.484053       28.830197
  H            7.547710       11.253045       24.051713
  H            6.825996       12.647718       24.499877
  O            7.613375       12.050211       24.651987
  H            4.285740        3.902534       28.753827
  H            2.698881        3.531154       28.857715
  O            3.361921        4.279053       28.823885
  H            5.434190        6.675932       28.851916
  H            3.806775        6.624381       28.726616
  O            4.637517        6.073218       28.805391
  H            4.063937        5.116045       26.933046
  H            5.396382        4.841715       26.029625
  O            4.414079        5.027056       26.000523
  H            7.604740        1.178733       23.356484
  H            6.718958        1.083674       21.987838
  O            7.624472        0.937220       22.386227
  H            4.620889        9.924258        7.026925
  H            5.653629        9.079184        7.968271
  O            5.410857        9.311016        7.026235
  H            7.642551        9.454331        2.948017
  H            7.598167        9.040040        1.369021
  O            7.669558        9.803324        2.011218
  H            2.714826        6.141335        3.996108
  H            2.727396        7.578545        3.220797
  O            3.292731        6.817382        3.538831
  H            5.454473        8.513369        1.520468
  H            5.244476        7.670762        2.903490
  O            5.808693        8.355654        2.442298
  H            2.916912        8.185950        1.124538
  H            3.989429        6.960503        1.002792
  O            3.018873        7.200956        0.984871
  H            2.636982       11.814191        0.951924
  H            3.926336       12.706331        1.408530
  O            3.024763       12.735671        0.976762
  H            6.006261       11.010537        2.793771
  H            5.994096       10.948077        1.161967
  O            5.600985       11.396302        1.964884
  H            6.201146        7.300607        6.617075
  H            7.622467        7.472292        5.831450
  O            6.644740        7.680835        5.805430
  H            6.006154        9.330945        4.500253
  H            4.965018       10.555762        4.787822
  O            5.097110        9.566083        4.844442
  H            2.696182        9.414058        4.430201
  H            2.894389       10.483266        5.648538
  O            2.955136        9.518999        5.390433
  H            6.270102        2.721082        7.559594
  H            7.597263        1.881422        8.007309
  O            6.628756        1.811155        7.768196
  H            5.390199        4.144667        3.220481
  H            4.803365        5.537556        2.602160
  O            5.619588        5.081849        2.957448
  H            7.705266        4.673120        0.984783
  H            6.701127        3.385281        0.981055
  O            7.658391        3.674240        0.997382
  H            7.626568        9.743278        5.928000
  H            7.471759       10.215943        7.483461
  O            7.614963        9.432593        6.878503
  H            7.592771       -0.023799        1.940985
  H            7.265938        1.259911        0.985942
  O            7.658210        0.340363        1.011889
  H            3.019150        3.106772        7.489042
  H            2.719113        4.320027        6.437935
  O            3.378961        3.951593        7.092897
  H            2.717648        7.671540        6.559533
  H            2.827885        8.828839        7.706417
  O            2.995617        7.864676        7.500569
  H            4.770856        1.394995        6.647634
  H            3.924192       -0.000821        6.606515
  O            3.854457        0.996803        6.605560
  H            5.731224        4.816435        5.343322
  H            5.361458        3.251413        5.627603
  O            6.066315        3.875666        5.290552
  H            2.862902       11.852135        3.571687
  H            4.408304       12.378098        3.527769
  O            3.449645       12.661759        3.552814
  H            7.613860        6.841616        1.334341
  H            6.129069        6.250780        0.997969
  O            6.758376        6.508735        1.731147
  H            5.281313        2.176866        2.248388
  H            4.551269        2.930306        0.996909
  O            4.967126        2.074408        1.304510
  H            7.369257       12.674123        1.118261
  H            7.421491       12.684458        2.750438
  O            7.657526       12.164841        1.929216
  H            3.726171        0.244126        4.430197
  H            4.228961        1.797824        4.437903
  O            3.428603        1.198509        4.457061
  H            7.621171        3.360248        3.830454
  H            7.615696        1.869881        3.162911
  O            7.201093        2.779459        3.133076
  H            5.490958       -0.034196        0.985157
  H            4.878180        0.029163        2.497547
  O            4.653863       -0.086298        1.529834
  H            7.622570        0.678895        6.165519
  H            7.593433        2.280776        5.849350
  O            7.624286        1.368356        5.441117
  H            7.429236        7.377821        3.635448
  H            7.620327        5.760799        3.760182
  O            6.996275        6.524458        3.926019
  H            7.621205        5.800706        7.349600
  H            7.618284        4.268126        6.785662
  O            7.529481        5.231515        6.532456
  H            3.965331       10.107800        1.271663
  H            4.186464        9.777640        2.855623
  O            3.684561       10.344137        2.201947
  H            2.711991        5.275892        1.974028
  H            2.625296        3.985367        0.977099
  O            3.168602        4.785447        1.231675
  H            2.718393        1.466133        1.364449
  H            2.693287        0.259954        2.465057
  O            3.022396        1.184932        2.274737
  H            3.607448        3.905624        4.474153
  H            2.706096        3.026133        3.434491
  O            2.991591        3.950576        3.687505
  H            6.818202       12.663297        5.487053
  H            7.280283       11.414978        4.541001
  O            6.572947       12.105108        4.694342
  H            5.747525       -0.002643        5.260701
  H            6.747525       -0.010534        3.969665
  O            5.945284        0.424702        4.378441
  H            3.833351       12.120154        6.777926
  H            2.768943       12.678559        5.672460
  O            2.909801       12.478980        6.642226
  H            4.541442        6.671266        5.342408
  H            4.153973        6.022747        6.790209
  O            3.950137        6.014964        5.811175
