300
CELL: 7.62970712 14.41879115 30.99487995 90.00000000 90.00000000 79.10660535 
Cu         7.47784        9.98813       19.28300
Cu         5.75207        7.62830       19.28300
Cu         4.02630        5.26847       19.28300
Cu         2.30053        2.90865       19.28300
Cu         0.57477        0.54882       19.28300
Cu         9.20360       12.34796       19.28300
Cu         1.93721        7.62830       19.28300
Cu         7.84115        5.26847       19.28300
Cu         6.11539        2.90865       19.28300
Cu         4.38962        0.54882       19.28300
Cu         5.38875       12.34796       19.28300
Cu         3.66298        9.98813       19.28300
Au         5.44979       10.69789       10.21927
Au         8.17469       11.64182       10.21927
Au         3.26987       12.58575       10.21927
Au         4.90481        7.86610       10.21927
Au         7.62971        8.81003       10.21927
Au         2.72490        9.75396       10.21927
Au         4.35983        5.03430       10.21927
Au         7.08473        5.97823       10.21927
Au         2.17992        6.92216       10.21927
Au         3.81485        2.20251       10.21927
Au         6.53975        3.14644       10.21927
Au         1.63494        4.09037       10.21927
Au         5.99477       13.52968       10.21927
Au         5.99477        0.31464       10.21927
Au         1.08996        1.25858       10.21927
Au         7.08473       10.38325       12.57384
Au         9.80962       11.32718       12.57384
Au         4.90481       12.27111       12.57384
Au         6.53975        7.55145       12.57384
Au         9.26464        8.49538       12.57384
Au         4.35983        9.43931       12.57384
Au         5.99477        4.71966       12.57384
Au         8.71967        5.66359       12.57384
Au         3.81485        6.60752       12.57384
Au         5.44979        1.88786       12.57384
Au         8.17469        2.83179       12.57384
Au         3.26987        3.77573       12.57384
Au         7.62971       13.21504       12.57384
Au         7.62971        0.00000       12.57384
Au         2.72490        0.94393       12.57384
Au         3.81485       11.01253       14.92842
Au         6.53975       11.95647       14.92842
Au         9.26464       12.90040       14.92842
Au         3.26987        8.18074       14.92842
Au         5.99477        9.12467       14.92842
Au         8.71967       10.06860       14.92842
Au         2.72490        5.34894       14.92842
Au         5.44979        6.29288       14.92842
Au         8.17469        7.23681       14.92842
Au         2.17992        2.51715       14.92842
Au         4.90481        3.46108       14.92842
Au         7.62971        4.40501       14.92842
Au         4.35983       13.84433       14.92842
Au         4.35983        0.62929       14.92842
Au         7.08473        1.57322       14.92842
Au         5.44979       10.69789       17.28300
Au         8.17469       11.64182       17.28300
Au        10.89958       12.58575       17.28300
Au         4.90481        7.86610       17.28300
Au         7.62971        8.81003       17.28300
Au        10.35460        9.75396       17.28300
Au         4.35983        5.03430       17.28300
Au         7.08473        5.97823       17.28300
Au         9.80962        6.92216       17.28300
Au         3.81485        2.20251       17.28300
Au         6.53975        3.14644       17.28300
Au         9.26464        4.09037       17.28300
Au         5.99477       13.52968       17.28300
Au         5.99477        0.31464       17.28300
Au         8.71967        1.25858       17.28300
O          7.62970        9.74790       21.21415
O          5.90394        7.38807       21.21415
O          4.17817        5.02825       21.21415
O          2.45240        2.66842       21.21415
O          0.72664        0.30859       21.21415
O          9.35547       12.10773       21.21415
O          2.11286        5.69616       19.67267
O          8.01680        3.33634       19.67267
O          6.29104        0.97651       19.67267
O          7.29016       12.77565       19.67267
O          5.56440       10.41582       19.67267
O          3.83863        8.05599       19.67267
  H         2.1342732843        6.5021910874       22.6135935336
  H         2.2258502507        5.0810588969       22.8304782107
  O         2.7856513642        5.8630431997       22.9710260390
  H         2.9231699315        2.0142757919       25.5699281277
  H         2.2934214414        2.9102003656       26.2700915498
  O         2.8005940464        2.1273675365       26.5351746461
  H         4.6299710632       10.2236898324       21.8425436527
  H         5.1626771901       10.7117562136       23.1024047588
  O         5.4513178131       10.2557257105       22.3188152859
  H         7.2962545927       11.9267775031       26.1690471053
  H         8.2633180658       12.3636942636       27.2455522447
  O         7.4242565389       11.8913613279       27.1191417341
  H         7.5090101658        8.7243956709       25.8928687924
  H         6.7535544696        9.4454433325       24.7911159241
  O         7.4863637067        9.5715039651       25.3943402517
  H         2.8532940222       11.4009766470       26.4682892268
  H         3.0681320126       11.9518840652       25.0373099857
  O         2.7966585370       12.1815955960       25.9344161874
  H         6.0795612577       12.6573753858       28.4004203895
  H         4.6645223631       12.7154245295       28.9451129207
  O         5.5031237245       12.2870307616       29.0847950812
  H         3.3305164223        3.4678367451       23.3818878846
  H         2.9716956471        4.3582430804       24.5405221085
  O         3.5319959233        3.5515743974       24.3438743624
  H         3.0625153637        8.2501015638       27.3172724308
  H         3.2972391617        9.4615572211       26.6762955822
  O         2.7000589375        8.7313637696       26.5624371459
  H         7.3748378643       12.4567751301       21.6963770009
  H         5.9609020842       12.5526183301       21.7690684443
  O         6.6415135893       12.6735802479       22.3465644957
  H         7.3645795222        2.4300322751       28.0211946575
  H         7.3864755324        0.8823157492       28.1903049321
  O         7.9419808971        1.6449843910       27.9669620991
  H         5.5592732915       11.0645233938       25.7418149202
  H         5.6535958457       12.2823665101       26.4460768624
  O         4.9875555590       11.5801898265       26.3377163481
  H         3.8381241785        9.3649231643       24.2754727275
  H         2.7346734997       10.1984926975       24.4156833463
  O         3.6952067231       10.2927839455       24.4412462072
  H         6.8490242225        4.0046172230       22.1811789975
  H         5.8910213041        3.0777028792       22.3599805759
  O         6.4896691030        3.3516770738       21.6594819431
  H         7.3604246751        5.9438897267       26.4758112753
  H         7.1397691150        7.1379337601       27.2383227909
  O         7.8581952783        6.6702164161       26.7766074003
  H         7.1602243524        2.9777495420       24.5970210227
  H         7.1145661282        2.7315315076       26.0576792542
  O         7.6833408667        3.1930275021       25.3837941257
  H         2.1860222890       10.2941845184       28.1235601306
  H         2.5491200972       11.5348874350       28.9062017488
  O         2.9515762497       10.7920110253       28.5303701698
  H         7.8123688148        7.9614023402       23.4217852521
  H         7.5781024356        7.2977854410       24.7363343657
  O         7.0802094927        7.5224974546       23.9409923766
  H         7.7704511651        5.4333070241       28.4867665469
  H         6.6194369487        4.7826366661       27.9142310312
  O         7.2546290721        4.6168375224       28.6569416813
  H         4.3225593137        7.2407051556       23.6784018426
  H         3.4391110840        7.0503255872       24.8188175940
  O         4.1474953658        7.6802575291       24.5282164448
  H         4.1771005365        0.2176030811       27.7882800432
  H         3.6285772043        0.9336968723       28.9473845327
  O         4.3514151289        0.3055314510       28.7224667455
  H         7.8029233844       10.3710586515       28.0496041463
  H         6.9984590756        9.4101828040       28.8491865485
  O         7.7781449136       10.0184837820       28.8864505730
  H         4.0681041717        0.4889627007       25.4657854006
  H         2.8578471383        0.2595855388       24.6451296453
  O         3.7711449406        0.0383010772       24.6693697909
  H         4.9185369030        1.4684851109       23.8446450803
  H         5.5325155958        2.1010688701       24.9764508077
  O         5.6258296419        2.0807232788       24.0191128106
  H         4.9679605760        5.1148739640       23.3994162790
  H         4.7488779942        6.4077589420       22.6590723310
  O         5.3828608233        5.6986938895       22.7258102253
  H         4.6617565220        2.7460976589       26.7846941725
  H         5.1878136699        1.9852674096       27.8727200236
  O         5.3636416332        2.7903524812       27.3711548537
  H         6.9365578838        0.7346667447       24.8930765875
  H         6.4199161012       -0.5799138346       25.2813164814
  O         6.3578683246        0.3353249406       25.5929623928
  H         5.1087859893        8.6421436712       26.2761353503
  H         5.1271448530        7.1976597838       26.2559488137
  O         5.3069059395        7.9456653510       26.9311324958
  H         7.9709528694        5.6409065321       24.0017332052
  H         7.6154144767        5.5665302444       22.5682705401
  O         8.1515750070        5.0507902756       23.2166863733
  H         5.1009425125       10.3573745615       29.1078660090
  H         4.4110738490        9.2156543634       28.5285324979
  O         5.2609328459        9.4432044781       28.9576344573
  H         8.2337502932       11.1614472663       23.8960223457
  H         7.8013439166       12.5572762867       23.8994737295
  O         7.7367666847       11.7947051268       24.4710662800
  H         3.9156671258        3.6659706194       28.3095955915
  H         2.5158002532        3.6972054772       28.1015174957
  O         3.1557944448        4.1590625306       28.6623019987
  H         5.4737424228        6.8973601802       28.4397395235
  H         4.1435453003        6.6133888440       29.0386955201
  O         5.0077895202        6.2354621968       28.8446882625
  H         4.7068987131        5.1018599607       27.0835696571
  H         5.1065025684        4.8783153672       25.7119151841
  O         4.4580884699        5.3244646992       26.2163882375
  H         6.8638154883        1.6179584999       22.8689412284
  H         7.7477413353        1.2555874178       21.7422869999
  O         7.4201283442        0.9167496390       22.5640824370
  H         4.2750614486        9.1406700190        7.4058233144
  H         5.7925522015        9.6836053179        7.7060940439
  O         5.1705008663        9.1905229475        7.1382012696
  H         7.9391638237        9.1959306696        2.7350913010
  H         7.3931794438        9.0498874989        1.3778105309
  O         7.8641603685        9.6382721349        1.9554269190
  H         3.1424481407        6.9582237173        4.3375686512
  H         2.2511935722        6.3396451085        3.3314649992
  O         3.0252968274        6.8867461978        3.4207996979
  H         5.2392850241        7.6239603289        2.1118341134
  H         5.8886851920        8.0696569567        3.3078872500
  O         5.4916396110        8.4614997627        2.5927479720
  H         3.3239195110        8.0097736571        1.4999858120
  H         3.3132369238        6.5786127380        1.2687274476
  O         3.1172995722        7.4487418717        0.7850846332
  H         2.4238989262       12.0924189753        1.5547127965
  H         3.7632887557       11.7264511015        0.9770905696
  O         2.9674749343       12.2230223038        0.7557235665
  H         5.5435215221       10.6710683269        2.6469419053
  H         5.1785249320       10.8598181577        1.2778183008
  O         5.6808747066       11.3091172283        1.9638810682
  H         6.1203312373        8.2213127460        6.4637320953
  H         7.2865598013        7.2897739900        6.1794594137
  O         6.5250861230        7.6724376530        5.7951282586
  H         5.2623419875        9.0259392979        5.0895417861
  H         5.5685068328       10.3692199799        5.0590558974
  O         5.1868070266        9.7167426906        4.4257064407
  H         3.4709693245        9.7712872965        4.9333716190
  H         2.4617549315       10.4303056330        5.8098871102
  O         2.6654925037        9.5620980790        5.4938348151
  H         6.1516828931        2.1488043742        6.6047374006
  H         7.4726636706        1.7915731760        7.2601046728
  O         6.5369365449        1.8565894477        7.4659701789
  H         4.9095865599        4.4716127637        3.6175878613
  H         4.8287464703        5.6261227039        2.7676753167
  O         5.3560312918        4.7725319018        2.8240800781
  H         7.8148416437        4.5855556152        1.3958673944
  H         6.8944400387        3.5350676153        1.2552459823
  O         7.7605367264        3.7331530401        0.9084180258
  H         8.2487775167        9.4504580560        6.1156738683
  H         8.3211782527       10.4449348967        7.2248272756
  O         7.9752149938        9.5635779218        7.0315245497
  H         7.8905033223        0.7972765597        2.0241219792
  H         7.9867908314        1.9221128948        1.0616722455
  O         7.6038662439        1.0051610794        1.1159655099
  H         2.7426534038        3.0816844876        7.0008062590
  H         2.7291390046        4.4362714432        6.7066769972
  O         3.3403187018        3.8527425359        7.1025168224
  H         3.2465691368        7.4444925839        6.6810354217
  H         2.2852579230        8.4682626032        6.8104729161
  O         2.8991974475        7.9614665746        7.3559997720
  H         4.5135783134        1.2183927426        7.1780748511
  H         3.4974301203        0.1947122902        7.4392071457
  O         3.8263840836        0.7718754891        6.6963199890
  H         6.3081552198        4.5913275347        5.6184819600
  H         5.1427534967        3.7693479425        5.9548614334
  O         5.9029049883        3.7039480405        5.3736315519
  H         3.5288956654       11.9708461697        3.1809958255
  H         4.1406730730       12.4946244667        4.2822020076
  O         3.4344152315       12.8160848478        3.6930025191
  H         7.5837890312        6.9021728751        0.6257451202
  H         6.4001770002        5.9124399423        0.8120053629
  O         7.0375298339        6.4872511395        1.2808515402
  H         5.5854584539        2.7647777657        2.0381181479
  H         4.6595943875        2.9976448508        0.8111161475
  O         5.3078937407        2.4232155513        1.2063673508
  H         7.1415825774       11.5590229530        1.6987390610
  H         7.9549129231       12.1461117842        2.9056840397
  O         7.9529630322       12.1896571214        1.9722090466
  H         2.9891209767        0.9045717864        5.0514476385
  H         4.2394244906        1.3406531987        4.4589418950
  O         3.3177007491        1.4167183494        4.2800959529
  H         6.7710396426        3.4651633132        3.2512114212
  H         6.7679896365        2.0827037825        3.8174357689
  O         7.2032746860        2.6168505270        3.1723446738
  H         5.3311562595        0.1710235655        0.8248934907
  H         5.0711460817        0.2077188276        2.4256158981
  O         4.8276816655       -0.1076034287        1.5672805071
  H         8.0682142585        1.0231015889        6.1908593361
  H         7.8991492607        2.2678489340        5.7376364023
  O         7.8991125579        1.4160507615        5.3254250415
  H         7.5536710483        7.1907191869        3.5401622651
  H         7.4341798506        5.6488102186        3.5722932596
  O         7.3239542487        6.4401593553        4.0891452891
  H         8.2503811692        5.8956237316        6.9218313023
  H         8.0693812629        4.4617216318        6.9434778752
  O         7.5751629261        5.2284270470        6.6342140826
  H         3.4414788717        9.9315709917        1.3223119009
  H         3.9300155431        9.5411610779        2.5956586552
  O         3.4137515535       10.2336170322        2.2364717919
  H         2.8454548126        4.5778403041        2.2153644675
  H         2.1767142933        4.8184658845        0.9283462738
  O         3.0408295333        4.6132668284        1.2731316237
  H         2.9889096337        1.9454133888        1.8669728308
  H         2.1972447208        0.7754517234        2.4584565278
  O         3.0258186391        1.0321244854        2.1093749695
  H         2.8157198938        4.4428393367        4.4825252331
  H         2.8212932841        3.0456942218        4.2390733221
  O         2.8911821058        3.8891702432        3.6973476586
  H         6.2246249143       12.6247874202        5.4201381197
  H         7.1542373383       11.5023317153        5.0102098802
  O         6.5263155446       12.1738682439        4.6821804701
  H         5.7027662641        0.8042235751        4.9591632126
  H         6.6887325049        0.0349151919        4.1908118239
  O         5.7258181113        0.1459332476        4.2372371055
  H         3.7386710851       12.4809792594        7.0385110826
  H         3.3357318541       13.1215660556        5.8468538667
  O         2.9342165083       12.5968101190        6.5048537436
  H         4.8525785595        6.5117299409        5.7666497487
  H         4.1028569439        5.6651970629        6.6392403280
  O         4.0204188325        6.0201051029        5.7550346948
